<?xml version="1.0" encoding="UTF-8"?>
<routes>
   <vType accel="3.0" decel="6.0" id="car_type1" vClass="passenger" length="5.0" minGap="2.5" maxSpeed="50.0" sigma="0.5"/>
   <vType accel="2.0" decel="6.0" id="car_type2" vClass="passenger" length="7.5" minGap="2.5" maxSpeed="50.0" sigma="0.5"/>
   <vType accel="3.0" decel="5.0" id="bus_type" vClass="bus" length="8.0" minGap="2.5" maxSpeed="40.0" sigma="0.5"/>
   <vType accel="3.0" decel="5.0" id="truck_type" vClass="truck" length="12" minGap="2.5" maxSpeed="30.0" sigma="0.5"/>
   <route id="route01" edges="-0.0.00 0.0.00"/>
   <route id="route02" edges="0.0.00 -0.0.00"/>
   <vehicle depart="0" id="car1" route="route01" type="car_type1" color="1,0,0" vClass="vClass_bus"/>
   <vehicle depart="0" id="car2" route="route01" type="car_type2" color="1,0,0" vClass="vClass_truck"/>
   <vehicle depart="0" id="bus1" route="route01" type="bus_type" color="1,0,0"/>
   <vehicle depart="0" id="truck1" route="route01" type="truck_type" color="1,0,0"/>
</routes>